36
Lattice="9.826000 0.0 0.0 -4.913000 8.509566 0.0 0.000000 0.000000 5.405200" Properties=species:S:1:pos:R:3
OX1 1.36926 1.16691 1.16007
OX1 3.2178 0.602366 2.96181
OX1 2.78244 2.48551 4.76354
OX1 0.325937 1.76927 4.24513
OX1 -1.08724 3.08788 2.44339
OX1 0.761298 3.65242 0.641659
SI1 2.27311 8.72262e-08 1.80173
SI1 -1.13655 1.96857 3.60347
SI1 1.31995 2.28622 -5.30663e-15
OX1 6.28226 1.16691 1.16007
OX1 8.1308 0.602366 2.96181
OX1 7.69544 2.48551 4.76354
OX1 5.23894 1.76927 4.24513
OX1 3.82576 3.08788 2.44339
OX1 5.6743 3.65242 0.641659
SI1 7.18611 1.3086e-07 1.80173
SI1 3.77645 1.96857 3.60347
SI1 6.23295 2.28622 7.75999e-16
OX1 -1.08724 5.42169 1.16007
OX1 0.761298 4.85715 2.96181
OX1 0.325937 6.74029 4.76354
OX1 -2.13056 6.02405 4.24513
OX1 -3.54374 7.34266 2.44339
OX1 -1.6952 7.9072 0.641659
SI1 -0.183394 4.25478 1.80173
SI1 -3.59305 6.22335 3.60347
SI1 -1.13655 6.541 -1.90038e-15
OX1 3.82576 5.42169 1.16007
OX1 5.6743 4.85715 2.96181
OX1 5.23894 6.7403 4.76354
OX1 2.78244 6.02405 4.24513
OX1 1.36926 7.34266 2.44339
OX1 3.2178 7.9072 0.641659
SI1 4.72961 4.25478 1.80173
SI1 1.31995 6.22335 3.60347
SI1 3.77645 6.541 -2.16099e-15
36
Lattice="9.826000 0.0 0.0 -4.913000 8.509566 0.0 0.000000 0.000000 5.405200" Properties=species:S:1:pos:R:3
OX1 1.36286 1.06934 1.1569
OX1 3.16132 0.535818 2.96172
OX1 2.61776 2.40667 4.66317
OX1 0.0419735 1.79332 4.40142
OX1 -1.22389 3.22278 2.55827
OX1 0.711017 3.63826 0.690954
SI1 2.27224 -0.0630686 1.76573
SI1 -1.3542 2.03071 3.64127
SI1 1.19833 2.26686 0.0146905
OX1 6.29499 1.16858 1.18791
OX1 8.01101 0.638348 2.98544
OX1 7.46299 2.52166 4.77945
OX1 5.13832 1.69203 4.22673
OX1 3.76219 3.16399 2.4743
OX1 5.45622 3.59319 0.546772
SI1 7.28921 -0.000730598 1.76672
SI1 3.65644 1.93157 3.54755
SI1 6.06138 2.21694 0.0204072
OX1 -0.890898 5.5605 1.20484
OX1 0.907296 4.80845 2.93458
OX1 0.463897 6.77709 4.7461
OX1 -1.96531 5.98457 4.23286
OX1 -3.49424 7.25937 2.42096
OX1 -1.57333 7.93615 0.604685
SI1 -0.213518 4.24814 1.85255
SI1 -3.44421 6.23729 3.63606
SI1 -1.00094 6.62418 -0.0433799
OX1 3.77816 5.44652 1.20595
OX1 5.81554 4.90066 2.86201
OX1 5.36141 6.66632 4.81451
OX1 2.9449 6.10332 4.20046
OX1 1.49875 7.2403 2.32904
OX1 3.36607 7.99153 0.621168
SI1 4.72413 4.29145 1.82113
SI1 1.48552 6.18106 3.59478
SI1 3.86044 6.58115 0.0330276
36
Lattice="9.826000 0.0 0.0 -4.913000 8.509566 0.0 0.000000 0.000000 5.405200" Properties=species:S:1:pos:R:3
OX1 1.22018 1.08954 1.17638
OX1 3.23354 0.578354 2.74963
OX1 2.78393 2.36177 4.8799
OX1 0.305 1.99888 4.26771
OX1 -1.22488 3.34197 2.53703
OX1 0.789866 3.65269 0.738104
SI1 2.18167 -0.0453271 1.71658
SI1 -1.18813 2.10585 3.58848
SI1 1.27788 2.26939 0.130291
OX1 6.16564 0.973628 1.05781
OX1 8.15728 0.783974 2.82421
OX1 7.60733 2.41522 4.82185
OX1 5.16891 1.76227 4.17242
OX1 3.66055 3.1081 2.57504
OX1 5.4959 3.4421 0.727893
SI1 7.28977 -0.00876136 1.72645
SI1 3.69667 1.88633 3.63795
SI1 6.14969 2.13781 0.00476095
OX1 -0.961173 5.56952 1.04468
OX1 0.796369 4.97278 3.00933
OX1 0.411287 6.98968 4.76909
OX1 -2.00159 6.07559 4.15841
OX1 -3.67789 7.3258 2.42057
OX1 -1.79198 7.95266 0.529706
SI1 -0.160634 4.36773 1.842
SI1 -3.52423 6.11807 3.55064
SI1 -1.07253 6.70528 -0.076168
OX1 3.88068 5.42841 1.2482
OX1 5.73376 4.70608 2.95199
OX1 5.28143 6.51019 4.7129
OX1 2.84041 5.91287 4.35009
OX1 1.62544 7.30924 2.47542
OX1 3.36486 7.96155 0.531269
SI1 4.68405 4.16183 1.89646
SI1 1.43478 6.27596 3.67114
SI1 3.84792 6.51209 0.00786479
36
Lattice="9.826000 0.0 0.0 -4.913000 8.509566 0.0 0.000000 0.000000 5.405200" Properties=species:S:1:pos:R:3
OX1 1.20487 1.05379 1.19171
OX1 3.05728 0.650262 2.94813
OX1 2.65749 2.48703 4.93634
OX1 0.178081 2.0846 4.3122
OX1 -1.19593 3.24758 2.3416
OX1 0.705177 3.70166 0.752354
SI1 2.22304 -0.00842823 1.76329
SI1 -1.18958 2.14068 3.52766
SI1 1.1968 2.30865 0.117307
OX1 6.42664 0.978851 1.10776
OX1 8.20687 0.722663 2.90728
OX1 7.4494 2.58846 4.54052
OX1 5.03346 1.65096 4.31935
OX1 3.64866 3.13023 2.63071
OX1 5.46161 3.39916 0.6362
SI1 7.41238 -0.0511167 1.79651
SI1 3.55228 1.94487 3.70723
SI1 6.11858 2.15077 -0.0251582
OX1 -0.993385 5.69357 1.15416
OX1 0.80622 4.85947 3.00078
OX1 0.378824 6.95438 4.64274
OX1 -2.03275 6.07762 4.20924
OX1 -3.39081 7.13443 2.33088
OX1 -1.66786 8.09258 0.57016
SI1 -0.234707 4.39938 1.84442
SI1 -3.46044 6.09016 3.52786
SI1 -1.08729 6.76046 -0.108269
OX1 4.0103 5.43245 1.23202
OX1 5.93196 4.57546 2.88527
OX1 5.23055 6.66075 4.58407
OX1 2.7983 5.81978 4.43598
OX1 1.66198 7.2339 2.43089
OX1 3.40301 7.89925 0.624479
SI1 4.73131 4.12154 1.91865
SI1 1.42429 6.20494 3.61522
SI1 3.8704 6.4779 0.0144433
36
Lattice="9.826000 0.0 0.0 -4.913000 8.509566 0.0 0.000000 0.000000 5.405200" Properties=species:S:1:pos:R:3
OX1 1.23979 1.15568 1.18926
OX1 2.92181 0.625912 2.96266
OX1 2.68826 2.43032 4.92694
OX1 0.200471 1.8574 4.27978
OX1 -1.12326 3.29275 2.50001
OX1 0.705612 3.70642 0.611748
SI1 2.17367 -0.00853534 1.71357
SI1 -1.22639 2.12386 3.58047
SI1 1.18197 2.33101 0.0412734
OX1 6.25939 1.00119 1.07929
OX1 8.16796 0.68761 2.90309
OX1 7.47761 2.42659 4.76721
OX1 5.04564 1.54626 4.32449
OX1 3.82706 3.11884 2.62235
OX1 5.50254 3.55822 0.573556
SI1 7.2474 -0.0414551 1.73276
SI1 3.63185 1.91978 3.72782
SI1 6.07496 2.14371 -0.00629634
OX1 -0.965582 5.62979 1.31495
OX1 0.877171 4.80901 3.00765
OX1 0.415328 6.76113 4.80648
OX1 -1.96 6.04626 4.30502
OX1 -3.48523 7.19948 2.30087
OX1 -1.7432 8.0441 0.598403
SI1 -0.101694 4.336 1.84685
SI1 -3.39852 6.14115 3.53017
SI1 -1.03637 6.69706 0.0547948
OX1 3.8764 5.38774 1.1083
OX1 5.82583 4.80333 2.84068
OX1 5.40618 6.63798 4.70459
OX1 2.912 6.08878 4.207
OX1 1.43774 7.30224 2.37795
OX1 3.38279 7.90089 0.609279
SI1 4.7029 4.19319 1.80417
SI1 1.39149 6.24232 3.61767
SI1 3.96001 6.5249 -0.0561647
36
Lattice="9.826000 0.0 0.0 -4.913000 8.509566 0.0 0.000000 0.000000 5.405200" Properties=species:S:1:pos:R:3
OX1 1.20181 1.14437 1.13775
OX1 3.02948 0.612082 3.04215
OX1 2.65171 2.51012 4.80661
OX1 0.248092 1.90326 4.26355
OX1 -1.23995 3.31394 2.56558
OX1 0.641281 3.7448 0.692791
SI1 2.24734 0.0167468 1.72457
SI1 -1.20097 2.05883 3.54567
SI1 1.1957 2.35388 0.0707199
OX1 6.27471 1.01558 1.04357
OX1 8.20169 0.658179 2.87483
OX1 7.54932 2.42297 4.6977
OX1 5.11651 1.69927 4.2737
OX1 3.78342 3.00754 2.51502
OX1 5.67346 3.56051 0.703132
SI1 7.33432 -0.0164205 1.74379
SI1 3.66095 1.91728 3.66487
SI1 6.14786 2.16722 -0.00826558
OX1 -1.13286 5.6038 1.13877
OX1 0.636951 4.92065 3.03019
OX1 0.485326 6.88042 4.76789
OX1 -2.03554 6.13797 4.2294
OX1 -3.48812 7.12765 2.22557
OX1 -1.56209 8.11111 0.644023
SI1 -0.308333 4.37513 1.8185
SI1 -3.50348 6.16354 3.50766
SI1 -1.01608 6.69299 0.0189301
OX1 4.06162 5.41725 1.22821
OX1 5.77536 4.6384 3.09927
OX1 5.17395 6.78067 4.48133
OX1 2.82529 5.85207 4.35032
OX1 1.60057 7.28649 2.42887
OX1 3.35731 7.80552 0.61483
SI1 4.80026 4.16241 1.90568
SI1 1.39401 6.18616 3.64827
SI1 3.8856 6.44738 -0.0154231
36
Lattice="9.826000 0.0 0.0 -4.913000 8.509566 0.0 0.000000 0.000000 5.405200" Properties=species:S:1:pos:R:3
OX1 1.36457 1.06109 1.14523
OX1 3.17389 0.673085 2.85861
OX1 2.63971 2.37745 4.69653
OX1 0.105267 1.77612 4.34495
OX1 -1.25954 3.1453 2.50837
OX1 0.719858 3.58623 0.826261
SI1 2.34628 -0.0624333 1.70812
SI1 -1.31497 1.98812 3.65872
SI1 1.20853 2.21467 0.0771162
OX1 6.15173 1.09287 1.24574
OX1 7.98963 0.61928 3.01957
OX1 7.58282 2.40703 4.85086
OX1 5.10923 1.72275 4.27521
OX1 3.83185 3.26825 2.54004
OX1 5.46507 3.61181 0.568946
SI1 7.18787 -0.0294036 1.79392
SI1 3.69376 2.0046 3.52441
SI1 6.0646 2.22648 0.0563007
OX1 -0.97519 5.56404 1.29672
OX1 0.695249 4.73483 3.11071
OX1 0.44819 6.77889 4.67885
OX1 -1.95997 5.97751 4.24222
OX1 -3.40598 7.28568 2.31216
OX1 -1.56544 7.93306 0.529992
SI1 -0.233906 4.246 1.89302
SI1 -3.4411 6.28655 3.55712
SI1 -1.02096 6.55548 -0.032661
OX1 4.02914 5.62749 1.13817
OX1 5.8091 4.9232 2.8941
OX1 5.38219 6.90783 4.68762
OX1 2.82322 5.97771 4.301
OX1 1.52601 7.13627 2.34887
OX1 3.23827 8.00008 0.607291
SI1 4.77462 4.34264 1.79393
SI1 1.42883 6.08627 3.57229
SI1 3.89259 6.64722 -0.0758287
36
Lattice="9.826000 0.0 0.0 -4.913000 8.509566 0.0 0.000000 0.000000 5.405200" Properties=species:S:1:pos:R:3
OX1 1.31603 0.929765 1.03011
OX1 3.18018 0.67737 2.89773
OX1 2.57771 2.43105 4.65358
OX1 0.135101 1.59692 4.26245
OX1 -1.22161 3.14404 2.52177
OX1 0.618705 3.36909 0.763074
SI1 2.37318 -0.0401501 1.71631
SI1 -1.28394 1.974 3.64684
SI1 1.14295 2.11211 -0.0320874
OX1 6.08916 1.09002 1.28534
OX1 8.16595 0.622934 2.89404
OX1 7.50433 2.18167 4.79846
OX1 4.99722 1.75386 4.40199
OX1 3.77532 3.23055 2.54794
OX1 5.73137 3.63852 0.817684
SI1 7.19576 -0.00162289 1.76618
SI1 3.64681 2.03749 3.61401
SI1 6.08926 2.22867 0.15548
OX1 -0.850003 5.49168 1.16223
OX1 0.898634 4.81711 2.97452
OX1 0.389272 6.78066 4.65457
OX1 -2.1268 5.98929 4.35019
OX1 -3.32495 7.20933 2.29455
OX1 -1.5337 7.97155 0.552256
SI1 -0.181978 4.2201 1.89155
SI1 -3.48187 6.28337 3.62713
SI1 -1.01925 6.59417 -0.0576323
OX1 3.9582 5.56581 1.11241
OX1 5.70059 4.94483 3.06495
OX1 5.28132 7.05213 4.54175
OX1 2.90803 6.11901 4.25433
OX1 1.54344 7.20949 2.31928
OX1 3.24052 8.01723 0.566888
SI1 4.74813 4.37141 1.89124
SI1 1.43985 6.21021 3.5251
SI1 3.89725 6.71806 -0.0434043
36
Lattice="9.826000 0.0 0.0 -4.913000 8.509566 0.0 0.000000 0.000000 5.405200" Properties=species:S:1:pos:R:3
OX1 1.37605 0.953477 1.0244
OX1 3.42666 0.796803 2.71927
OX1 2.54251 2.49201 4.66262
OX1 0.158483 1.56454 4.23314
OX1 -1.2105 3.12932 2.68452
OX1 0.53062 3.39373 0.701804
SI1 2.45434 0.00353706 1.70355
SI1 -1.30644 1.86662 3.69153
SI1 1.13079 2.11168 -0.0450593
OX1 6.08672 1.03543 1.09538
OX1 7.97745 0.637366 2.81291
OX1 7.53316 2.33055 4.80801
OX1 5.01393 1.84241 4.40247
OX1 3.72661 3.34899 2.60224
OX1 5.59033 3.75527 0.789507
SI1 7.07447 -0.0924253 1.67677
SI1 3.67452 2.10642 3.56878
SI1 6.07317 2.29444 0.0953945
OX1 -0.877519 5.4557 1.25773
OX1 0.942157 4.73229 2.88143
OX1 0.512735 6.54768 4.68627
OX1 -2.13464 5.96563 4.45384
OX1 -3.27517 7.36096 2.45465
OX1 -1.47689 7.90874 0.598425
SI1 -0.17818 4.12172 1.8885
SI1 -3.49476 6.36287 3.71001
SI1 -0.918004 6.47376 0.0536703
OX1 3.96069 5.78746 1.22864
OX1 5.67933 5.01805 3.07625
OX1 5.34086 7.00054 4.77214
OX1 2.9983 5.92789 4.15126
OX1 1.48077 7.0964 2.32522
OX1 3.0988 8.04181 0.360846
SI1 4.67194 4.48216 1.86642
SI1 1.50296 6.10443 3.55338
SI1 3.85431 6.70791 -0.0969068
36
Lattice="9.826000 0.0 0.0 -4.913000 8.509566 0.0 0.000000 0.000000 5.405200" Properties=species:S:1:pos:R:3
OX1 1.44066 0.795119 0.866838
OX1 3.40762 0.713303 2.66208
OX1 2.62784 2.41642 4.61914
OX1 0.17891 1.74633 4.13938
OX1 -1.18578 3.18148 2.59443
OX1 0.682767 3.3244 0.739374
SI1 2.48997 -0.10292 1.67112
SI1 -1.36346 1.96418 3.63515
SI1 1.25111 2.07537 -0.0762075
OX1 6.01662 1.1044 1.14816
OX1 7.73297 0.66185 2.95524
OX1 7.53426 2.45508 4.88203
OX1 5.0935 2.05234 4.23209
OX1 3.69791 3.45174 2.52534
OX1 5.59441 3.74254 0.751421
SI1 6.97906 -0.0291071 1.71887
SI1 3.70186 2.14012 3.46921
SI1 6.05223 2.3506 0.0793931
OX1 -0.931523 5.29965 1.36237
OX1 0.965201 4.85498 2.88708
OX1 0.496862 6.49461 4.87761
OX1 -2.08629 5.78756 4.52318
OX1 -3.1368 7.1953 2.49212
OX1 -1.41099 7.77927 0.672733
SI1 -0.0843006 4.07091 1.9272
SI1 -3.4612 6.20481 3.72748
SI1 -0.975194 6.32251 0.172041
OX1 3.93181 5.79701 1.13652
OX1 5.64311 4.93421 3.02657
OX1 5.33869 6.93603 4.75877
OX1 2.9953 6.16709 4.02589
OX1 1.27488 7.25123 2.45275
OX1 3.10512 8.0808 0.520437
SI1 4.66463 4.49699 1.79114
SI1 1.44814 6.19879 3.63469
SI1 3.83306 6.79408 -0.123109
36
Lattice="9.826000 0.0 0.0 -4.913000 8.509566 0.0 0.000000 0.000000 5.405200" Properties=species:S:1:pos:R:3
OX1 1.50868 0.90318 0.976752
OX1 3.3928 0.766681 2.78145
OX1 2.47092 2.60657 4.53947
OX1 0.07409 1.41642 4.33441
OX1 -1.07329 3.1251 2.82627
OX1 0.474961 3.31462 0.689035
SI1 2.55914 -0.0616208 1.69278
SI1 -1.33267 1.8445 3.75352
SI1 1.1615 2.04063 -0.0992378
OX1 5.91745 1.13968 1.09592
OX1 7.87838 0.615677 2.90454
OX1 7.61426 2.39614 4.94106
OX1 5.06001 2.12766 4.27042
OX1 3.66716 3.43556 2.41253
OX1 5.76864 3.7619 0.757493
SI1 6.95145 0.0450965 1.71999
SI1 3.59637 2.20943 3.47907
SI1 6.09453 2.37899 0.0941124
OX1 -0.991433 5.25966 1.29183
OX1 1.09454 4.6901 2.81918
OX1 0.456526 6.37083 4.75166
OX1 -2.10655 5.82234 4.44305
OX1 -3.1196 7.29174 2.49081
OX1 -1.36921 7.75634 0.700893
SI1 -0.097364 4.08619 1.94655
SI1 -3.43327 6.29564 3.74892
SI1 -0.969819 6.27291 0.0777121
OX1 3.96999 5.69271 1.02823
OX1 5.59738 4.97325 3.09832
OX1 5.40561 7.10017 4.79338
OX1 2.89843 6.26903 4.0998
OX1 1.26158 7.30056 2.38155
OX1 3.02072 8.03497 0.529456
SI1 4.73705 4.47533 1.79268
SI1 1.44636 6.11341 3.49577
SI1 3.89954 6.81537 -0.135237
